Version 4
SHEET 1 880 680
WIRE 0 -80 -224 -80
WIRE 48 -80 0 -80
WIRE 192 -80 128 -80
WIRE -224 -32 -224 -80
WIRE -224 112 -224 48
WIRE 0 128 0 -80
WIRE 80 128 0 128
WIRE 192 144 192 -80
WIRE 192 144 144 144
WIRE 240 144 192 144
WIRE 416 144 304 144
WIRE 80 160 0 160
WIRE 416 208 416 144
WIRE 0 224 0 160
WIRE -224 352 -224 176
WIRE 0 352 0 304
WIRE 0 352 -224 352
WIRE 416 352 416 288
WIRE 416 352 0 352
SYMBOL OpAmps\\opamp 112 80 R0
WINDOW 0 -5 33 Left 0
SYMATTR InstName U1
SYMBOL res -240 -48 R0
WINDOW 0 43 57 Left 2
SYMATTR InstName R1
SYMATTR Value ""
SYMBOL voltage 0 208 R0
WINDOW 0 43 50 Left 2
WINDOW 3 44 73 Left 2
SYMATTR InstName Vg
SYMATTR Value ""
SYMBOL res 144 -96 R90
WINDOW 0 -10 54 VBottom 2
WINDOW 3 32 56 VTop 2
SYMATTR InstName R2
SYMATTR Value ""
SYMBOL cap -240 112 R0
WINDOW 0 53 17 Left 2
WINDOW 3 49 40 Left 1
SYMATTR InstName C3
SYMATTR Value 100µ
SYMBOL cap 304 128 R90
WINDOW 0 0 32 VBottom 2
WINDOW 3 65 29 VBottom 1
SYMATTR InstName C1
SYMATTR Value 470µ
SYMBOL res 400 192 R0
WINDOW 0 38 47 Left 2
WINDOW 3 50 68 Left 1
SYMATTR InstName RL
SYMATTR Value 8
