Version 4
SHEET 1 3220 680
WIRE 2784 16 2608 16
WIRE 2976 16 2784 16
WIRE 3136 16 2976 16
WIRE 2608 32 2608 16
WIRE 720 64 544 64
WIRE 912 64 720 64
WIRE 1072 64 912 64
WIRE 2176 64 2064 64
WIRE 544 80 544 64
WIRE 2784 80 2784 16
WIRE 2064 96 2064 64
WIRE 2976 96 2976 16
WIRE 3136 96 3136 16
WIRE 112 112 0 112
WIRE 720 128 720 64
WIRE 2176 128 2176 64
WIRE 2608 128 2608 96
WIRE 2608 128 2256 128
WIRE 0 144 0 112
WIRE 912 144 912 64
WIRE 1072 144 1072 64
WIRE 2608 160 2608 128
WIRE 112 176 112 112
WIRE 544 176 544 144
WIRE 544 176 192 176
WIRE 2784 176 2784 160
WIRE 544 208 544 176
WIRE 720 224 720 208
WIRE 2064 272 2064 176
WIRE 2608 272 2608 224
WIRE 2608 272 2064 272
WIRE 2784 272 2784 256
WIRE 2784 272 2608 272
WIRE 2976 272 2976 160
WIRE 2976 272 2784 272
WIRE 3136 272 3136 176
WIRE 3136 272 2976 272
WIRE 0 320 0 224
WIRE 544 320 544 272
WIRE 544 320 0 320
WIRE 720 320 720 304
WIRE 720 320 544 320
WIRE 912 320 912 208
WIRE 912 320 720 320
WIRE 1072 320 1072 224
WIRE 1072 320 912 320
WIRE 2064 320 2064 272
WIRE 0 368 0 320
FLAG 0 368 0
FLAG 0 112 Vin
FLAG 1072 64 Vout
FLAG 2064 320 0
SYMBOL voltage 0 128 R0
WINDOW 3 24 156 Left 2
WINDOW 123 24 126 Left 2
WINDOW 39 0 0 Left 0
SYMATTR InstName V1
SYMATTR Value SINE(0 1 10.7Meg 0 0 0 0)
SYMATTR Value2 AC 1 0
SYMBOL cap 528 80 R0
SYMATTR InstName C1
SYMATTR Value 148.74n
SYMBOL cap 528 208 R0
SYMATTR InstName C2
SYMATTR Value 99.162p
SYMBOL ind 704 112 R0
SYMATTR InstName L1
SYMATTR Value 2.05µ
SYMBOL res 1056 128 R0
SYMATTR InstName R1
SYMATTR Value 2.7k
SYMBOL res 96 192 R270
WINDOW 0 32 56 VTop 2
WINDOW 3 0 56 VBottom 2
SYMATTR InstName R2
SYMATTR Value 150
SYMBOL cap 896 144 R0
SYMATTR InstName C3
SYMATTR Value 8p
SYMBOL res 704 208 R0
SYMATTR InstName R3
SYMATTR Value 0.5
SYMBOL voltage 2064 80 R0
WINDOW 3 24 156 Left 2
WINDOW 123 24 126 Left 2
WINDOW 39 0 0 Left 0
SYMATTR InstName V2
SYMATTR Value SINE(0 1 10.7Meg 0 0 0 0)
SYMATTR Value2 AC 1 0
SYMBOL cap 2592 32 R0
SYMATTR InstName C4
SYMATTR Value 9.91p
SYMBOL cap 2592 160 R0
SYMATTR InstName C5
SYMATTR Value 5.53p
SYMBOL ind 2768 64 R0
SYMATTR InstName L2
SYMATTR Value 743.5n
SYMBOL res 3120 80 R0
SYMATTR InstName R4
SYMATTR Value 2.7k
SYMBOL res 2160 144 R270
WINDOW 0 32 56 VTop 2
WINDOW 3 0 56 VBottom 2
SYMATTR InstName R5
SYMATTR Value 150
SYMBOL cap 2960 96 R0
SYMATTR InstName C6
SYMATTR Value 8p
SYMBOL res 2768 160 R0
SYMATTR InstName R6
SYMATTR Value 0.5
TEXT -400 176 Left 2 ;.ac dec 1000 100k 100Meg
TEXT -400 208 Left 2 !.tran 10000n
TEXT -32 -208 Left 2 ;Si saco el Cl (C3) entonces L=307.26fF
