Version 4
SHEET 1 4476 932
WIRE 112 -112 -176 -112
WIRE 400 -112 112 -112
WIRE 112 -48 112 -112
WIRE 400 -32 400 -112
WIRE 2288 -16 2000 -16
WIRE 336 16 272 16
WIRE -176 48 -176 -112
WIRE 2000 48 2000 -16
WIRE 2288 64 2288 -16
WIRE 112 80 112 32
WIRE 272 80 272 16
WIRE 272 80 112 80
WIRE 2224 112 2160 112
WIRE 112 128 112 80
WIRE 400 160 400 112
WIRE 2000 176 2000 128
WIRE 2160 176 2160 112
WIRE 2160 176 2000 176
WIRE 2000 224 2000 176
WIRE 2288 256 2288 208
WIRE 112 288 112 208
WIRE 112 288 16 288
WIRE 224 288 112 288
WIRE 400 288 400 240
WIRE 624 288 400 288
WIRE 16 304 16 288
WIRE -48 352 -496 352
WIRE 400 384 400 288
WIRE 2000 384 2000 304
WIRE 2000 384 1552 384
WIRE 2112 384 2000 384
WIRE 2288 384 2288 336
WIRE 2512 384 2288 384
WIRE 16 432 16 400
WIRE -176 464 -176 128
WIRE -496 480 -496 352
WIRE 2288 480 2288 384
WIRE 1552 512 1552 384
WIRE 400 544 400 464
WIRE 224 640 224 288
WIRE 336 640 224 640
WIRE 2288 640 2288 560
WIRE -496 736 -496 560
WIRE -176 736 -176 544
WIRE 16 736 16 512
WIRE 16 736 -176 736
WIRE 304 736 16 736
WIRE 400 736 400 688
WIRE 400 736 304 736
WIRE 2112 736 2112 384
WIRE 2224 736 2112 736
WIRE 1552 768 1552 592
WIRE 2112 768 2112 736
WIRE 2112 768 1552 768
WIRE 2288 832 2288 784
WIRE 2288 832 2192 832
FLAG 624 368 0
FLAG 400 -192 0
FLAG 304 816 0
FLAG 2512 464 0
FLAG 2288 -96 0
FLAG 2192 912 0
FLAG -496 736 0
SYMBOL res 96 -64 R0
SYMATTR InstName R1
SYMATTR Value 150
SYMBOL npn -48 304 R0
SYMATTR InstName Q1
SYMATTR Value BC337-40
SYMBOL sym\\ZZZ\\Darlington\\tip122 400 32 R0
SYMATTR InstName U1
SYMBOL sym\\ZZZ\\Darlington\\tip127 400 624 R0
SYMATTR InstName U2
SYMBOL res 384 144 R0
SYMATTR InstName Re1
SYMATTR Value 0.12
SYMBOL res 384 368 R0
SYMATTR InstName Re2
SYMATTR Value 0.12
SYMBOL res 608 272 R0
SYMATTR InstName Rl
SYMATTR Value 4
SYMBOL voltage 112 112 R0
WINDOW 0 47 37 Left 2
WINDOW 3 46 67 Left 2
SYMATTR InstName V1
SYMATTR Value 2.5
SYMBOL res 0 416 R0
SYMATTR InstName R2
SYMATTR Value 30
SYMBOL res -192 448 R0
SYMATTR InstName Rb
SYMATTR Value 10k
SYMBOL res -192 32 R0
SYMATTR InstName Ra
SYMATTR Value 16k
SYMBOL voltage -496 464 R0
WINDOW 0 -199 48 Left 2
WINDOW 3 -335 84 Left 2
WINDOW 123 0 0 Left 0
WINDOW 39 0 0 Left 0
SYMATTR InstName Vg
SYMATTR Value SINE(0 0.5 10k 0 0 0 1000)
SYMBOL voltage 400 -96 R180
WINDOW 0 40 93 Left 2
WINDOW 3 51 57 Left 2
SYMATTR InstName V2
SYMATTR Value 16
SYMBOL voltage 304 720 R0
WINDOW 0 46 56 Left 2
WINDOW 3 43 86 Left 2
SYMATTR InstName V3
SYMATTR Value -16
SYMBOL voltage 1552 496 R0
WINDOW 0 -199 48 Left 2
WINDOW 3 -335 84 Left 2
WINDOW 123 0 0 Left 0
WINDOW 39 0 0 Left 0
SYMATTR InstName Vg1
SYMATTR Value SINE(0 0.5 10k 0 0 0 1000)
SYMBOL res 1984 32 R0
SYMATTR InstName R5
SYMATTR Value 10k
SYMBOL sym\\ZZZ\\Darlington\\tip122 2288 128 R0
SYMATTR InstName U5
SYMBOL sym\\ZZZ\\Darlington\\tip127 2288 720 R0
SYMATTR InstName U6
SYMBOL res 2272 240 R0
SYMATTR InstName Re5
SYMATTR Value 0.12
SYMBOL res 2272 464 R0
SYMATTR InstName Re6
SYMATTR Value 0.12
SYMBOL res 2496 368 R0
SYMATTR InstName Rl2
SYMATTR Value 4
SYMBOL voltage 2000 208 R0
WINDOW 0 47 37 Left 2
WINDOW 3 46 67 Left 2
SYMATTR InstName V7
SYMATTR Value 2.5
SYMBOL voltage 2288 0 R180
WINDOW 0 40 93 Left 2
WINDOW 3 51 57 Left 2
SYMATTR InstName V8
SYMATTR Value 16
SYMBOL voltage 2192 816 R0
WINDOW 0 46 56 Left 2
WINDOW 3 43 86 Left 2
SYMATTR InstName V9
SYMATTR Value -16
TEXT -752 624 Left 2 !.tran 0.001
TEXT 1296 656 Left 2 !;tran 0.001
