Version 4
SHEET 1 880 680
WIRE 304 -16 144 -16
WIRE 448 -16 304 -16
WIRE 144 0 144 -16
WIRE 304 16 304 -16
WIRE 448 80 448 -16
WIRE -48 112 -128 112
WIRE 144 112 144 64
WIRE 144 112 32 112
WIRE 304 128 304 96
WIRE -128 144 -128 112
WIRE 144 160 144 112
WIRE 144 224 -128 224
WIRE 304 224 304 208
WIRE 304 224 144 224
WIRE 336 224 304 224
WIRE 448 224 448 160
WIRE 448 224 336 224
FLAG 336 224 0
SYMBOL res 48 96 R90
WINDOW 0 0 56 VBottom 2
WINDOW 3 32 56 VTop 2
SYMATTR InstName R1
SYMATTR Value 150
SYMBOL voltage -128 128 R0
WINDOW 123 24 124 Left 2
WINDOW 39 0 0 Left 0
SYMATTR InstName V1
SYMATTR Value ""
SYMATTR Value2 AC 1 0
SYMBOL cap 128 0 R0
SYMATTR InstName C1
SYMATTR Value 409.19p
SYMBOL cap 128 160 R0
SYMATTR InstName C2
SYMATTR Value 989.4p
SYMBOL ind 288 0 R0
SYMATTR InstName L1
SYMATTR Value 745n
SYMBOL res 288 112 R0
SYMATTR InstName R2
SYMATTR Value 0.5
SYMBOL res 432 64 R0
SYMATTR InstName R3
SYMATTR Value 2.7k
TEXT -160 272 Left 2 !.ac dec 1000 0.1 50Meg
