Version 4
SHEET 1 4516 820
WIRE -1408 -1024 -1472 -1024
WIRE -1248 -1024 -1248 -1056
WIRE -1248 -1024 -1328 -1024
WIRE -2288 -1008 -2352 -1008
WIRE -2128 -1008 -2128 -1040
WIRE -2128 -1008 -2208 -1008
WIRE -992 -864 -992 -912
WIRE -2128 -800 -2128 -1008
WIRE -2352 -784 -2352 -1008
WIRE -2336 -784 -2352 -784
WIRE -2192 -784 -2336 -784
WIRE -1248 -784 -1248 -1024
WIRE -3008 -768 -3136 -768
WIRE -2864 -768 -2928 -768
WIRE -2784 -768 -2864 -768
WIRE -2336 -768 -2336 -784
WIRE -2336 -768 -2704 -768
WIRE -2032 -768 -2032 -848
WIRE -2032 -768 -2128 -768
WIRE -2016 -768 -2032 -768
WIRE -1872 -768 -1952 -768
WIRE -1808 -768 -1808 -816
WIRE -1808 -768 -1872 -768
WIRE -1760 -768 -1808 -768
WIRE -1472 -768 -1472 -1024
WIRE -1472 -768 -1680 -768
WIRE -1456 -768 -1472 -768
WIRE -1312 -768 -1456 -768
WIRE -1152 -752 -1152 -832
WIRE -1152 -752 -1248 -752
WIRE -1136 -752 -1152 -752
WIRE -992 -752 -992 -800
WIRE -992 -752 -1072 -752
WIRE -880 -752 -992 -752
WIRE -704 -752 -800 -752
WIRE -2864 -720 -2864 -768
WIRE -1456 -400 -1456 -768
WIRE -1152 -400 -1456 -400
WIRE -992 -400 -992 -752
WIRE -992 -400 -1072 -400
WIRE -2336 -384 -2336 -768
WIRE -2032 -384 -2336 -384
WIRE -1872 -384 -1872 -768
WIRE -1872 -384 -1952 -384
WIRE 2528 -320 2448 -320
WIRE 2912 -320 2608 -320
WIRE -3136 -304 -3136 -768
WIRE -2864 -304 -2864 -640
WIRE -2864 -304 -3136 -304
WIRE -1872 -304 -2864 -304
WIRE -704 -304 -704 -752
WIRE -704 -304 -1504 -304
WIRE 1648 -304 1568 -304
WIRE 2032 -304 1728 -304
WIRE -1872 -112 -1872 -304
WIRE -1872 -112 -2048 -112
WIRE -1792 -112 -1872 -112
WIRE -1504 -96 -1504 -304
WIRE -1504 -96 -1728 -96
WIRE -1344 -96 -1504 -96
WIRE -1792 -80 -1872 -80
WIRE 4112 -16 3872 -16
WIRE 4272 -16 4192 -16
WIRE 4336 -16 4272 -16
WIRE 4512 -16 4416 -16
WIRE -2048 16 -2048 -112
WIRE 3872 32 3872 -16
WIRE 4272 32 4272 -16
WIRE 1376 48 1200 48
WIRE 1568 48 1568 -304
WIRE 1568 48 1456 48
WIRE 1648 48 1568 48
WIRE 1728 48 1712 48
WIRE 1824 48 1728 48
WIRE 2032 64 2032 -304
WIRE 2032 64 1888 64
WIRE 2048 64 2032 64
WIRE 2256 64 2048 64
WIRE 2384 64 2336 64
WIRE 2448 64 2448 -320
WIRE 2448 64 2384 64
WIRE 2528 64 2448 64
WIRE 2608 64 2592 64
WIRE 2704 64 2608 64
WIRE 2912 80 2912 -320
WIRE 2912 80 2768 80
WIRE 2928 80 2912 80
WIRE 1200 96 1200 48
WIRE 1568 96 1568 48
WIRE -1872 112 -1872 -80
WIRE -1504 112 -1504 -96
WIRE -1504 112 -1872 112
WIRE 2384 112 2384 64
WIRE 1728 128 1728 48
WIRE 2608 144 2608 64
WIRE -1872 160 -1872 112
WIRE 3872 176 3872 112
WIRE 4272 176 4272 112
WIRE 4272 176 3872 176
WIRE 4512 176 4512 -16
WIRE 4512 176 4272 176
WIRE 1200 192 1200 176
WIRE 1568 208 1568 160
WIRE -1872 288 -1872 240
WIRE 2704 480 2704 96
WIRE 2784 480 2704 480
WIRE 2928 480 2928 80
WIRE 2928 480 2864 480
WIRE 1824 512 1824 80
WIRE 1904 512 1824 512
WIRE 2048 512 2048 64
WIRE 2048 512 1984 512
WIRE 2704 512 2704 480
WIRE 1824 544 1824 512
FLAG -1344 -96 Vout
FLAG -1872 288 0
FLAG -1760 16 0
FLAG -1760 -208 0
FLAG 1728 208 0
FLAG 2608 224 0
FLAG 1568 208 0
FLAG 1824 624 0
FLAG 2704 592 0
FLAG 2384 176 0
FLAG 2736 192 0
FLAG 2736 -32 0
FLAG 1856 -48 0
FLAG 1856 176 0
FLAG 1200 192 0
FLAG -1152 -912 0
FLAG -2032 -928 0
FLAG -992 -912 0
FLAG -1248 -1136 0
FLAG -2128 -1120 0
FLAG -1808 -880 0
FLAG -2160 -896 0
FLAG -2160 -672 0
FLAG -1280 -656 0
FLAG -1280 -880 0
FLAG -2048 96 0
FLAG 3872 176 0
SYMBOL voltage -1760 -80 R0
WINDOW 0 45 56 Left 2
WINDOW 3 39 82 Left 2
WINDOW 123 0 0 Left 0
WINDOW 39 0 0 Left 0
SYMATTR InstName V1
SYMATTR Value 12
SYMBOL voltage -1760 -112 R180
WINDOW 0 24 96 Left 2
WINDOW 3 38 52 Left 2
SYMATTR InstName V2
SYMATTR Value -12
SYMBOL res 1472 32 R90
WINDOW 0 0 56 VBottom 2
WINDOW 3 32 56 VTop 2
SYMATTR InstName R3
SYMATTR Value 866
SYMBOL res 1744 -320 R90
WINDOW 0 0 56 VBottom 2
WINDOW 3 32 56 VTop 2
SYMATTR InstName R4
SYMATTR Value 866
SYMBOL res 1744 224 R180
WINDOW 0 36 76 Left 2
WINDOW 3 36 40 Left 2
SYMATTR InstName R5
SYMATTR Value 1210
SYMBOL cap 1712 32 R90
WINDOW 0 0 32 VBottom 2
WINDOW 3 32 32 VTop 2
SYMATTR InstName C1
SYMATTR Value 470p
SYMBOL res 1808 528 R0
SYMATTR InstName R6
SYMATTR Value 4870
SYMBOL res 2000 496 R90
WINDOW 0 0 56 VBottom 2
WINDOW 3 32 56 VTop 2
SYMATTR InstName R7
SYMATTR Value 11500
SYMBOL voltage 1200 80 R0
WINDOW 123 24 126 Left 2
WINDOW 39 0 0 Left 0
SYMATTR InstName V3
SYMATTR Value ""
SYMATTR Value2 AC 1 0
SYMBOL res 2352 48 R90
WINDOW 0 0 56 VBottom 2
WINDOW 3 32 56 VTop 2
SYMATTR InstName R8
SYMATTR Value 2740
SYMBOL res 2624 -336 R90
WINDOW 0 0 56 VBottom 2
WINDOW 3 32 56 VTop 2
SYMATTR InstName R9
SYMATTR Value 2740
SYMBOL res 2624 240 R180
WINDOW 0 36 76 Left 2
WINDOW 3 36 40 Left 2
SYMATTR InstName R10
SYMATTR Value 3830
SYMBOL cap 2592 48 R90
WINDOW 0 0 32 VBottom 2
WINDOW 3 32 32 VTop 2
SYMATTR InstName C2
SYMATTR Value 160p
SYMBOL res 2688 496 R0
SYMATTR InstName R11
SYMATTR Value 4870
SYMBOL res 2880 464 R90
WINDOW 0 0 56 VBottom 2
WINDOW 3 32 56 VTop 2
SYMATTR InstName R12
SYMATTR Value 11500
SYMBOL cap 2368 112 R0
SYMATTR InstName C3
SYMATTR Value 160p
SYMBOL cap 1552 96 R0
SYMATTR InstName C4
SYMATTR Value 470p
SYMBOL voltage 1856 80 R0
WINDOW 3 45 80 Left 2
SYMATTR InstName V4
SYMATTR Value 12
SYMBOL voltage 1856 48 R180
WINDOW 0 47 83 Left 2
WINDOW 3 48 46 Left 2
SYMATTR InstName V5
SYMATTR Value -12
SYMBOL voltage 2736 64 R180
WINDOW 0 24 96 Left 2
WINDOW 3 32 56 Left 2
SYMATTR InstName V6
SYMATTR Value -12
SYMBOL voltage 2736 96 R0
SYMATTR InstName V7
SYMATTR Value 12
SYMBOL OpAmps\\RH1814 2736 80 M180
SYMATTR InstName U1
SYMBOL OpAmps\\RH1814 1856 64 M180
SYMATTR InstName U2
SYMBOL res -896 -736 R270
WINDOW 0 32 56 VTop 2
WINDOW 3 0 56 VBottom 2
SYMATTR InstName R13
SYMATTR Value 866
SYMBOL res -1168 -384 R270
WINDOW 0 32 56 VTop 2
WINDOW 3 0 56 VBottom 2
SYMATTR InstName R14
SYMATTR Value 866
SYMBOL res -1168 -928 R0
SYMATTR InstName R15
SYMATTR Value 1210
SYMBOL cap -1136 -736 R270
WINDOW 0 32 32 VTop 2
WINDOW 3 0 32 VBottom 2
SYMATTR InstName C5
SYMATTR Value 470p
SYMBOL res -1232 -1040 R180
WINDOW 0 36 76 Left 2
WINDOW 3 36 40 Left 2
SYMATTR InstName R16
SYMATTR Value 4870
SYMBOL res -1424 -1008 R270
WINDOW 0 32 56 VTop 2
WINDOW 3 0 56 VBottom 2
SYMATTR InstName R17
SYMATTR Value 11500
SYMBOL res -1776 -752 R270
WINDOW 0 32 56 VTop 2
WINDOW 3 0 56 VBottom 2
SYMATTR InstName R18
SYMATTR Value 2740
SYMBOL res -2048 -368 R270
WINDOW 0 32 56 VTop 2
WINDOW 3 0 56 VBottom 2
SYMATTR InstName R19
SYMATTR Value 2740
SYMBOL res -2048 -944 R0
SYMATTR InstName R20
SYMATTR Value 3830
SYMBOL cap -2016 -752 R270
WINDOW 0 32 32 VTop 2
WINDOW 3 0 32 VBottom 2
SYMATTR InstName C6
SYMATTR Value 160p
SYMBOL res -2112 -1024 R180
WINDOW 0 36 76 Left 2
WINDOW 3 36 40 Left 2
SYMATTR InstName R21
SYMATTR Value 4870
SYMBOL res -2304 -992 R270
WINDOW 0 32 56 VTop 2
WINDOW 3 0 56 VBottom 2
SYMATTR InstName R22
SYMATTR Value 11500
SYMBOL cap -1792 -816 R180
WINDOW 0 24 56 Left 2
WINDOW 3 24 8 Left 2
SYMATTR InstName C7
SYMATTR Value 160p
SYMBOL cap -976 -800 R180
WINDOW 0 24 56 Left 2
WINDOW 3 24 8 Left 2
SYMATTR InstName C8
SYMATTR Value 470p
SYMBOL voltage -1280 -784 R180
WINDOW 0 24 96 Left 2
WINDOW 3 24 16 Left 2
SYMATTR InstName V9
SYMATTR Value 12
SYMBOL voltage -1280 -752 R0
SYMATTR InstName V10
SYMATTR Value -12
SYMBOL voltage -2160 -768 R0
SYMATTR InstName V11
SYMATTR Value -12
SYMBOL voltage -2160 -800 R180
WINDOW 0 24 96 Left 2
WINDOW 3 24 16 Left 2
SYMATTR InstName V12
SYMATTR Value 12
SYMBOL OpAmps\\RH1814 -2160 -784 M0
SYMATTR InstName U3
SYMBOL OpAmps\\RH1814 -1280 -768 M0
SYMATTR InstName U4
SYMBOL voltage -2048 0 R0
WINDOW 0 -308 44 Left 2
WINDOW 3 -465 73 Left 2
WINDOW 123 0 0 Left 0
WINDOW 39 0 0 Left 0
SYMATTR InstName V8
SYMATTR Value PULSE(0 1 0.1u 0 0 1p 0 1)
SYMBOL OpAmps\\RH1814 -1760 -96 M180
WINDOW 0 36 -25 Left 2
WINDOW 3 27 18 Left 2
SYMATTR InstName U5
SYMBOL voltage 3872 16 R0
WINDOW 123 24 126 Left 2
WINDOW 39 0 0 Left 0
SYMATTR InstName V13
SYMATTR Value ""
SYMATTR Value2 AC 1 0
SYMBOL res 4208 -32 R90
WINDOW 0 0 56 VBottom 2
WINDOW 3 32 56 VTop 2
SYMATTR InstName R1
SYMATTR Value 100
SYMBOL res 4288 128 R180
WINDOW 0 36 76 Left 2
WINDOW 3 36 40 Left 2
SYMATTR InstName R2
SYMATTR Value 100
SYMBOL res 4432 -32 R90
WINDOW 0 0 56 VBottom 2
WINDOW 3 32 56 VTop 2
SYMATTR InstName R23
SYMATTR Value 900
SYMBOL res -2800 -784 M90
WINDOW 0 0 56 VBottom 2
WINDOW 3 32 56 VTop 2
SYMATTR InstName R24
SYMATTR Value 100
SYMBOL res -2880 -624 M180
WINDOW 0 36 76 Left 2
WINDOW 3 36 40 Left 2
SYMATTR InstName R25
SYMATTR Value 100
SYMBOL res -3024 -784 M90
WINDOW 0 0 56 VBottom 2
WINDOW 3 32 56 VTop 2
SYMATTR InstName R26
SYMATTR Value 900
TEXT -2432 288 Left 2 !.tran 1u
TEXT 1568 800 Left 2 ;.ac lin 1000 1 1Meg
